8
Properties=species:S:1:pos:R:3:initial_charges:R:1 pbc="F F F"
C        0.09017500       0.12616600      -0.00001600       0.49470000
C       -1.38762600      -0.12509200       0.00003000      -0.26440000
O        0.62149900       1.19927900      -0.00009100      -0.50230000
O        0.78941500      -1.02616000       0.00005600      -0.55260000
H        1.72661000      -0.79325400       0.00004300       0.44120000
H       -1.65654500      -0.70992500      -0.87819000       0.12780000
H       -1.91613400       0.82134700      -0.00015600       0.12780000
H       -1.65653200      -0.70955700       0.87850100       0.12780000
