14
Properties=species:S:1:pos:R:3:initial_charges:R:1 pbc="F F F"
C        0.00000000       0.56705500       0.00000000      -0.20810000
C        1.32263200       0.14091900       0.00000000      -0.08850000
C       -1.03709000      -0.36317900       0.00000000      -0.06950000
C        1.61562900      -1.21550900       0.00000000      -0.15080000
C       -0.74480300      -1.71510200       0.00000000      -0.15060000
C        0.58112400      -2.14010000       0.00000000      -0.10360000
H        2.12032400       0.87449600       0.00000000       0.14020000
H       -2.05733300      -0.00304600       0.00000000       0.16180000
H        2.64344800      -1.55100700       0.00000000       0.14400000
H       -1.54483500      -2.44261300       0.00000000       0.14460000
H        0.80546200      -3.19837600       0.00000000       0.14050000
C       -0.29538900       2.01852300       0.00000000       0.37160000
H        0.59606300       2.67450000       0.00000000       0.10030000
O       -1.40196800       2.48630100       0.00000000      -0.43210000
