10
Properties=species:S:1:pos:R:3:initial_charges:R:1 pbc="F F F"
H        1.33896900      -0.78583800       0.81300000       0.33230000
N        1.28867500      -0.18404300       0.00000300      -0.92470000
C        0.04098100       0.57482700      -0.00000600       0.08240000
C       -1.23127700      -0.26584500       0.00000100      -0.28320000
H        0.05162100       1.22913300       0.87291600       0.10200000
H        0.05162200       1.22911800      -0.87293800       0.10200000
H       -2.12356300       0.36160100      -0.00000400       0.08560000
H       -1.26828200      -0.90686300       0.88221500       0.08560000
H       -1.26828200      -0.90687600      -0.88220400       0.08560000
H        1.33896400      -0.78586400      -0.81297600       0.33230000
