13
Properties=species:S:1:pos:R:3:initial_charges:R:1 pbc="F F F"
C        0.93362600      -0.02500000       0.00000200       0.35370000
C        0.21881300      -1.21679000       0.00000700      -0.17360000
C       -1.16555700      -1.18296200      -0.00000200      -0.09570000
C       -1.84607200       0.02877900      -0.00001100      -0.17750000
C       -1.12418200       1.21265200      -0.00000800      -0.09020000
C        0.26373800       1.19173300      -0.00000500      -0.23800000
H        0.76351600      -2.15048400       0.00001600       0.15680000
H       -1.71811700      -2.11287200      -0.00000100       0.14030000
H       -2.92639600       0.04843500      -0.00001800       0.14140000
H       -1.64020500       2.16324000      -0.00001400       0.13770000
H        0.82671800       2.11770000      -0.00001000       0.13700000
O        2.29206600      -0.11067600       0.00000300      -0.71930000
H        2.67575300       0.76891100       0.00010000       0.42740000
